[root]
type=Root
children=system
eventq_index=0
full_system=false
sim_quantum=0
time_sync_enable=false
time_sync_period=100000000000
time_sync_spin_threshold=100000000

[system]
type=System
children=clk_domain cpu cpu_clk_domain cpu_voltage_domain dvfs_handler mem_ctrls redirect_paths0 redirect_paths1 redirect_paths2 ruby sys_port_proxy voltage_domain workload
auto_unlink_shared_backstore=false
cache_line_size=64
eventq_index=0
exit_on_work_items=false
external_memory_ranges=
init_param=0
m5ops_base=0
mem_mode=timing
mem_ranges=0:2147483648
memories=system.mem_ctrls.dram
mmap_using_noreserve=false
multi_thread=false
num_work_ids=16
readfile=
redirect_paths=system.redirect_paths0 system.redirect_paths1 system.redirect_paths2
shadow_rom_ranges=
shared_backstore=
symbolfile=
thermal_components=
thermal_model=Null
work_begin_ckpt_count=0
work_begin_cpu_id_exit=-1
work_begin_exit_count=0
work_cpus_ckpt_count=0
work_end_ckpt_count=0
work_end_exit_count=0
work_item_id=-1
workload=system.workload
system_port=system.sys_port_proxy.in_ports[0]

[system.clk_domain]
type=SrcClockDomain
clock=1000
domain_id=-1
eventq_index=0
init_perf_level=0
voltage_domain=system.voltage_domain

[system.cpu]
type=BaseTimingSimpleCPU
children=decoder interrupts isa mmu power_state tracer workload
branchPred=Null
checker=Null
clk_domain=system.cpu_clk_domain
cpu_id=0
decoder=system.cpu.decoder
do_checkpoint_insts=true
do_statistics_insts=true
eventq_index=0
function_trace=false
function_trace_start=0
interrupts=system.cpu.interrupts
isa=system.cpu.isa
max_insts_all_threads=0
max_insts_any_thread=0
mmu=system.cpu.mmu
numThreads=1
power_gating_on_idle=false
power_model=
power_state=system.cpu.power_state
progress_interval=0
pwr_gating_latency=300
simpoint_start_insts=
socket_id=0
switched_out=false
syscallRetryLatency=10000
system=system
tracer=system.cpu.tracer
workload=system.cpu.workload
dcache_port=system.ruby.l1_cntrl0.sequencer.in_ports[1]
icache_port=system.ruby.l1_cntrl0.sequencer.in_ports[0]

[system.cpu.decoder]
type=X86Decoder
eventq_index=0
isa=system.cpu.isa

[system.cpu.interrupts]
type=X86LocalApic
children=clk_domain
clk_domain=system.cpu.interrupts.clk_domain
eventq_index=0
int_latency=1000
pio_latency=100000
system=system
int_requestor=system.ruby.l1_cntrl0.sequencer.in_ports[4]
int_responder=system.ruby.l1_cntrl0.sequencer.interrupt_out_port[1]
pio=system.ruby.l1_cntrl0.sequencer.interrupt_out_port[0]

[system.cpu.interrupts.clk_domain]
type=DerivedClockDomain
clk_divider=16
clk_domain=system.cpu_clk_domain
eventq_index=0

[system.cpu.isa]
type=X86ISA
APMInfo=2147483672 1752462657 1769238117 1145913699
CacheParams=0 0 0 0
ExtendedFeatures=0 25165824 0 0
ExtendedState=0 0 0 0 0 0 0 0
FamilyModelStepping=134993 2053 4024171519 521
FamilyModelSteppingBrandFeatures=134993 1029 3956538367 131073
L1CacheAndTLB=4278779656 4280352544 1073873216 1073873216
L2L3CacheAndL2TLB=0 1107313152 0 67141952
LongModeAddressSize=12336 0 0 0
eventq_index=0
name_string=Fake gem5 x86_64 CPU
vendor_string=HygonGenuine

[system.cpu.mmu]
type=X86MMU
children=dtb itb
dtb=system.cpu.mmu.dtb
eventq_index=0
itb=system.cpu.mmu.itb

[system.cpu.mmu.dtb]
type=X86TLB
children=walker
entry_type=data
eventq_index=0
next_level=Null
size=64
system=system
walker=system.cpu.mmu.dtb.walker

[system.cpu.mmu.dtb.walker]
type=X86PagetableWalker
children=power_state
clk_domain=system.cpu_clk_domain
eventq_index=0
num_squash_per_cycle=4
power_model=
power_state=system.cpu.mmu.dtb.walker.power_state
system=system
port=system.ruby.l1_cntrl0.sequencer.in_ports[3]

[system.cpu.mmu.dtb.walker.power_state]
type=PowerState
clk_gate_bins=20
clk_gate_max=1000000000000
clk_gate_min=1000
default_state=UNDEFINED
eventq_index=0
leaders=
possible_states=

[system.cpu.mmu.itb]
type=X86TLB
children=walker
entry_type=instruction
eventq_index=0
next_level=Null
size=64
system=system
walker=system.cpu.mmu.itb.walker

[system.cpu.mmu.itb.walker]
type=X86PagetableWalker
children=power_state
clk_domain=system.cpu_clk_domain
eventq_index=0
num_squash_per_cycle=4
power_model=
power_state=system.cpu.mmu.itb.walker.power_state
system=system
port=system.ruby.l1_cntrl0.sequencer.in_ports[2]

[system.cpu.mmu.itb.walker.power_state]
type=PowerState
clk_gate_bins=20
clk_gate_max=1000000000000
clk_gate_min=1000
default_state=UNDEFINED
eventq_index=0
leaders=
possible_states=

[system.cpu.power_state]
type=PowerState
clk_gate_bins=20
clk_gate_max=1000000000000
clk_gate_min=1000
default_state=UNDEFINED
eventq_index=0
leaders=
possible_states=ON CLK_GATED OFF

[system.cpu.tracer]
type=ExeTracer
children=disassembler
disassembler=system.cpu.tracer.disassembler
eventq_index=0

[system.cpu.tracer.disassembler]
type=InstDisassembler
eventq_index=0

[system.cpu.workload]
type=Process
cmd=./tests/coh_bench 0 1 10000 padded 0 0
cwd=/home/vboxuser/gem5
drivers=
egid=100
env=
errout=cerr
euid=100
eventq_index=0
executable=./tests/coh_bench
gid=1000
input=cin
kvmInSE=false
maxStackSize=67108864
output=cout
pgid=100
pid=100
ppid=0
release=5.1.0
simpoint=0
system=system
uid=100
useArchPT=false
zeroPages=true

[system.cpu_clk_domain]
type=SrcClockDomain
clock=500
domain_id=-1
eventq_index=0
init_perf_level=0
voltage_domain=system.cpu_voltage_domain

[system.cpu_voltage_domain]
type=VoltageDomain
eventq_index=0
voltage=1.0

[system.dvfs_handler]
type=DVFSHandler
domains=
enable=false
eventq_index=0
sys_clk_domain=system.clk_domain
transition_latency=100000000

[system.mem_ctrls]
type=MemCtrl
children=dram power_state
clk_domain=system.clk_domain
command_window=10000
disable_sanity_check=false
dram=system.mem_ctrls.dram
eventq_index=0
mem_sched_policy=frfcfs
min_reads_per_switch=16
min_writes_per_switch=16
power_model=
power_state=system.mem_ctrls.power_state
qos_policy=Null
qos_priorities=1
qos_priority_escalation=false
qos_q_policy=fifo
qos_requestors=               
qos_syncro_scheduler=false
qos_turnaround_policy=Null
static_backend_latency=10000
static_frontend_latency=10000
system=system
write_high_thresh_perc=85
write_low_thresh_perc=50
port=system.ruby.dir_cntrl0.memory_out_port

[system.mem_ctrls.dram]
type=DRAMInterface
children=power_state
IDD0=0.055
IDD02=0.0
IDD2N=0.032
IDD2N2=0.0
IDD2P0=0.0
IDD2P02=0.0
IDD2P1=0.032
IDD2P12=0.0
IDD3N=0.038
IDD3N2=0.0
IDD3P0=0.0
IDD3P02=0.0
IDD3P1=0.038
IDD3P12=0.0
IDD4R=0.157
IDD4R2=0.0
IDD4W=0.125
IDD4W2=0.0
IDD5=0.23500000000000001
IDD52=0.0
IDD6=0.02
IDD62=0.0
VDD=1.5
VDD2=0.0
activation_limit=4
addr_mapping=RoRaBaCoCh
bank_groups_per_rank=0
banks_per_rank=8
beats_per_clock=2
burst_length=8
clk_domain=system.clk_domain
collect_stats=true
conf_table_reported=true
data_clock_sync=false
device_bus_width=8
device_rowbuffer_size=1024
device_size=536870912
devices_per_rank=8
dll=true
enable_dram_powerdown=false
eventq_index=0
image_file=
in_addr_map=true
kvm_map=true
max_accesses_per_row=16
null=false
page_policy=open_adaptive
power_model=
power_state=system.mem_ctrls.dram.power_state
range=0:2147483648
ranks_per_channel=2
read_buffer_size=32
tAAD=1250
tBURST=5000
tBURST_MAX=5000
tBURST_MIN=5000
tCCD_L=0
tCCD_L_WR=0
tCK=1250
tCL=13750
tCS=2500
tCWL=13750
tPPD=0
tRAS=35000
tRCD=13750
tRCD_WR=13750
tREFI=7800000
tRFC=260000
tRP=13750
tRRD=6000
tRRD_L=0
tRTP=7500
tRTW=2500
tWR=15000
tWTR=7500
tWTR_L=7500
tXAW=30000
tXP=6000
tXPDLL=0
tXS=270000
tXSDLL=0
two_cycle_activate=false
write_buffer_size=64
writeable=true

[system.mem_ctrls.dram.power_state]
type=PowerState
clk_gate_bins=20
clk_gate_max=1000000000000
clk_gate_min=1000
default_state=UNDEFINED
eventq_index=0
leaders=
possible_states=

[system.mem_ctrls.power_state]
type=PowerState
clk_gate_bins=20
clk_gate_max=1000000000000
clk_gate_min=1000
default_state=UNDEFINED
eventq_index=0
leaders=
possible_states=

[system.redirect_paths0]
type=RedirectPath
app_path=/proc
eventq_index=0
host_paths=results_coh_54/A_core_scaling_rpw0/MOESI_CMP_directory_1c_padded_rpw0_iters10000/fs/proc

[system.redirect_paths1]
type=RedirectPath
app_path=/sys
eventq_index=0
host_paths=results_coh_54/A_core_scaling_rpw0/MOESI_CMP_directory_1c_padded_rpw0_iters10000/fs/sys

[system.redirect_paths2]
type=RedirectPath
app_path=/tmp
eventq_index=0
host_paths=results_coh_54/A_core_scaling_rpw0/MOESI_CMP_directory_1c_padded_rpw0_iters10000/fs/tmp

[system.ruby]
type=RubySystem
children=clk_domain dir_cntrl0 l1_cntrl0 l2_cntrl0 memctrl_clk_domain network power_state
access_backing_store=false
all_instructions=false
block_size_bytes=64
clk_domain=system.ruby.clk_domain
eventq_index=0
hot_lines=false
memory_size_bits=48
num_of_sequencers=1
number_of_virtual_networks=3
phys_mem=Null
power_model=
power_state=system.ruby.power_state
randomization=false
system=system

[system.ruby.clk_domain]
type=SrcClockDomain
clock=500
domain_id=-1
eventq_index=0
init_perf_level=0
voltage_domain=system.voltage_domain

[system.ruby.dir_cntrl0]
type=MOESI_CMP_directory_Directory_Controller
children=directory forwardFromDir power_state requestToDir requestToMemory responseFromDir responseFromMemory responseToDir triggerQueue
addr_ranges=0:2147483648
buffer_size=0
clk_domain=system.ruby.clk_domain
cluster_id=0
directory=system.ruby.dir_cntrl0.directory
directory_latency=6
downstream_destinations=
eventq_index=0
forwardFromDir=system.ruby.dir_cntrl0.forwardFromDir
mandatory_queue_latency=1
number_of_TBEs=256
power_model=
power_state=system.ruby.dir_cntrl0.power_state
recycle_latency=10
requestToDir=system.ruby.dir_cntrl0.requestToDir
requestToMemory=system.ruby.dir_cntrl0.requestToMemory
responseFromDir=system.ruby.dir_cntrl0.responseFromDir
responseFromMemory=system.ruby.dir_cntrl0.responseFromMemory
responseToDir=system.ruby.dir_cntrl0.responseToDir
ruby_system=system.ruby
system=system
to_memory_controller_latency=1
transitions_per_cycle=32
triggerQueue=system.ruby.dir_cntrl0.triggerQueue
upstream_destinations=
version=0
memory_out_port=system.mem_ctrls.port

[system.ruby.dir_cntrl0.directory]
type=RubyDirectoryMemory
addr_ranges=0:2147483648
block_size=64
eventq_index=0
ruby_system=system.ruby

[system.ruby.dir_cntrl0.forwardFromDir]
type=MessageBuffer
allow_zero_latency=false
buffer_size=0
eventq_index=0
max_dequeue_rate=0
ordered=false
randomization=ruby_system
routing_priority=0
out_port=system.ruby.network.in_port[6]

[system.ruby.dir_cntrl0.power_state]
type=PowerState
clk_gate_bins=20
clk_gate_max=1000000000000
clk_gate_min=1000
default_state=UNDEFINED
eventq_index=0
leaders=
possible_states=

[system.ruby.dir_cntrl0.requestToDir]
type=MessageBuffer
allow_zero_latency=false
buffer_size=0
eventq_index=0
max_dequeue_rate=0
ordered=false
randomization=ruby_system
routing_priority=0
in_port=system.ruby.network.out_port[5]

[system.ruby.dir_cntrl0.requestToMemory]
type=MessageBuffer
allow_zero_latency=false
buffer_size=0
eventq_index=0
max_dequeue_rate=0
ordered=false
randomization=ruby_system
routing_priority=0

[system.ruby.dir_cntrl0.responseFromDir]
type=MessageBuffer
allow_zero_latency=false
buffer_size=0
eventq_index=0
max_dequeue_rate=0
ordered=false
randomization=ruby_system
routing_priority=0
out_port=system.ruby.network.in_port[5]

[system.ruby.dir_cntrl0.responseFromMemory]
type=MessageBuffer
allow_zero_latency=false
buffer_size=0
eventq_index=0
max_dequeue_rate=0
ordered=false
randomization=ruby_system
routing_priority=0

[system.ruby.dir_cntrl0.responseToDir]
type=MessageBuffer
allow_zero_latency=false
buffer_size=0
eventq_index=0
max_dequeue_rate=0
ordered=false
randomization=ruby_system
routing_priority=0
in_port=system.ruby.network.out_port[6]

[system.ruby.dir_cntrl0.triggerQueue]
type=MessageBuffer
allow_zero_latency=false
buffer_size=0
eventq_index=0
max_dequeue_rate=0
ordered=true
randomization=ruby_system
routing_priority=0

[system.ruby.l1_cntrl0]
type=MOESI_CMP_directory_L1Cache_Controller
children=L1Dcache L1Icache mandatoryQueue power_state requestFromL1Cache requestToL1Cache responseFromL1Cache responseToL1Cache sequencer triggerQueue
L1Dcache=system.ruby.l1_cntrl0.L1Dcache
L1Icache=system.ruby.l1_cntrl0.L1Icache
addr_ranges=0:18446744073709551615
buffer_size=0
clk_domain=system.cpu_clk_domain
cluster_id=0
downstream_destinations=
eventq_index=0
mandatoryQueue=system.ruby.l1_cntrl0.mandatoryQueue
mandatory_queue_latency=1
number_of_TBEs=256
power_model=
power_state=system.ruby.l1_cntrl0.power_state
recycle_latency=10
requestFromL1Cache=system.ruby.l1_cntrl0.requestFromL1Cache
requestToL1Cache=system.ruby.l1_cntrl0.requestToL1Cache
request_latency=1
responseFromL1Cache=system.ruby.l1_cntrl0.responseFromL1Cache
responseToL1Cache=system.ruby.l1_cntrl0.responseToL1Cache
response_latency=1
ruby_system=system.ruby
send_evictions=true
sequencer=system.ruby.l1_cntrl0.sequencer
system=system
transitions_per_cycle=4
triggerQueue=system.ruby.l1_cntrl0.triggerQueue
upstream_destinations=
use_timeout_latency=50
version=0

[system.ruby.l1_cntrl0.L1Dcache]
type=RubyCache
children=replacement_policy
assoc=8
atomicALUs=64
atomicLatency=0
block_size=0
dataAccessLatency=1
dataArrayBanks=1
eventq_index=0
is_icache=false
replacement_policy=system.ruby.l1_cntrl0.L1Dcache.replacement_policy
resourceStalls=false
size=32768
start_index_bit=6
tagAccessLatency=1
tagArrayBanks=1

[system.ruby.l1_cntrl0.L1Dcache.replacement_policy]
type=TreePLRURP
eventq_index=0
num_leaves=8

[system.ruby.l1_cntrl0.L1Icache]
type=RubyCache
children=replacement_policy
assoc=2
atomicALUs=64
atomicLatency=0
block_size=0
dataAccessLatency=1
dataArrayBanks=1
eventq_index=0
is_icache=true
replacement_policy=system.ruby.l1_cntrl0.L1Icache.replacement_policy
resourceStalls=false
size=32768
start_index_bit=6
tagAccessLatency=1
tagArrayBanks=1

[system.ruby.l1_cntrl0.L1Icache.replacement_policy]
type=TreePLRURP
eventq_index=0
num_leaves=2

[system.ruby.l1_cntrl0.mandatoryQueue]
type=MessageBuffer
allow_zero_latency=false
buffer_size=0
eventq_index=0
max_dequeue_rate=0
ordered=false
randomization=ruby_system
routing_priority=0

[system.ruby.l1_cntrl0.power_state]
type=PowerState
clk_gate_bins=20
clk_gate_max=1000000000000
clk_gate_min=1000
default_state=UNDEFINED
eventq_index=0
leaders=
possible_states=

[system.ruby.l1_cntrl0.requestFromL1Cache]
type=MessageBuffer
allow_zero_latency=false
buffer_size=0
eventq_index=0
max_dequeue_rate=0
ordered=false
randomization=ruby_system
routing_priority=0
out_port=system.ruby.network.in_port[0]

[system.ruby.l1_cntrl0.requestToL1Cache]
type=MessageBuffer
allow_zero_latency=false
buffer_size=0
eventq_index=0
max_dequeue_rate=0
ordered=false
randomization=ruby_system
routing_priority=0
in_port=system.ruby.network.out_port[0]

[system.ruby.l1_cntrl0.responseFromL1Cache]
type=MessageBuffer
allow_zero_latency=false
buffer_size=0
eventq_index=0
max_dequeue_rate=0
ordered=false
randomization=ruby_system
routing_priority=0
out_port=system.ruby.network.in_port[1]

[system.ruby.l1_cntrl0.responseToL1Cache]
type=MessageBuffer
allow_zero_latency=false
buffer_size=0
eventq_index=0
max_dequeue_rate=0
ordered=false
randomization=ruby_system
routing_priority=0
in_port=system.ruby.network.out_port[1]

[system.ruby.l1_cntrl0.sequencer]
type=RubySequencer
children=power_state
clk_domain=system.cpu_clk_domain
coreid=99
dcache=system.ruby.l1_cntrl0.L1Dcache
deadlock_threshold=500000
eventq_index=0
garnet_standalone=false
is_cpu_sequencer=true
max_outstanding_requests=16
no_retry_on_stall=false
power_model=
power_state=system.ruby.l1_cntrl0.sequencer.power_state
ruby_system=system.ruby
support_data_reqs=true
support_inst_reqs=true
system=system
using_ruby_tester=false
version=0
in_ports=system.cpu.icache_port system.cpu.dcache_port system.cpu.mmu.itb.walker.port system.cpu.mmu.dtb.walker.port system.cpu.interrupts.int_requestor
interrupt_out_port=system.cpu.interrupts.pio system.cpu.interrupts.int_responder

[system.ruby.l1_cntrl0.sequencer.power_state]
type=PowerState
clk_gate_bins=20
clk_gate_max=1000000000000
clk_gate_min=1000
default_state=UNDEFINED
eventq_index=0
leaders=
possible_states=

[system.ruby.l1_cntrl0.triggerQueue]
type=MessageBuffer
allow_zero_latency=false
buffer_size=0
eventq_index=0
max_dequeue_rate=0
ordered=true
randomization=ruby_system
routing_priority=0

[system.ruby.l2_cntrl0]
type=MOESI_CMP_directory_L2Cache_Controller
children=GlobalRequestFromL2Cache GlobalRequestToL2Cache L1RequestFromL2Cache L1RequestToL2Cache L2cache power_state responseFromL2Cache responseToL2Cache triggerQueue
GlobalRequestFromL2Cache=system.ruby.l2_cntrl0.GlobalRequestFromL2Cache
GlobalRequestToL2Cache=system.ruby.l2_cntrl0.GlobalRequestToL2Cache
L1RequestFromL2Cache=system.ruby.l2_cntrl0.L1RequestFromL2Cache
L1RequestToL2Cache=system.ruby.l2_cntrl0.L1RequestToL2Cache
L2cache=system.ruby.l2_cntrl0.L2cache
addr_ranges=0:2147483648
buffer_size=0
clk_domain=system.ruby.clk_domain
cluster_id=0
downstream_destinations=
eventq_index=0
mandatory_queue_latency=1
number_of_TBEs=256
power_model=
power_state=system.ruby.l2_cntrl0.power_state
recycle_latency=10
request_latency=1
responseFromL2Cache=system.ruby.l2_cntrl0.responseFromL2Cache
responseToL2Cache=system.ruby.l2_cntrl0.responseToL2Cache
response_latency=1
ruby_system=system.ruby
system=system
transitions_per_cycle=4
triggerQueue=system.ruby.l2_cntrl0.triggerQueue
upstream_destinations=
version=0

[system.ruby.l2_cntrl0.GlobalRequestFromL2Cache]
type=MessageBuffer
allow_zero_latency=false
buffer_size=0
eventq_index=0
max_dequeue_rate=0
ordered=false
randomization=ruby_system
routing_priority=0
out_port=system.ruby.network.in_port[2]

[system.ruby.l2_cntrl0.GlobalRequestToL2Cache]
type=MessageBuffer
allow_zero_latency=false
buffer_size=0
eventq_index=0
max_dequeue_rate=0
ordered=false
randomization=ruby_system
routing_priority=0
in_port=system.ruby.network.out_port[2]

[system.ruby.l2_cntrl0.L1RequestFromL2Cache]
type=MessageBuffer
allow_zero_latency=false
buffer_size=0
eventq_index=0
max_dequeue_rate=0
ordered=false
randomization=ruby_system
routing_priority=0
out_port=system.ruby.network.in_port[3]

[system.ruby.l2_cntrl0.L1RequestToL2Cache]
type=MessageBuffer
allow_zero_latency=false
buffer_size=0
eventq_index=0
max_dequeue_rate=0
ordered=false
randomization=ruby_system
routing_priority=0
in_port=system.ruby.network.out_port[3]

[system.ruby.l2_cntrl0.L2cache]
type=RubyCache
children=replacement_policy
assoc=16
atomicALUs=64
atomicLatency=0
block_size=0
dataAccessLatency=20
dataArrayBanks=1
eventq_index=0
is_icache=false
replacement_policy=system.ruby.l2_cntrl0.L2cache.replacement_policy
resourceStalls=false
size=1048576
start_index_bit=6
tagAccessLatency=20
tagArrayBanks=1

[system.ruby.l2_cntrl0.L2cache.replacement_policy]
type=TreePLRURP
eventq_index=0
num_leaves=16

[system.ruby.l2_cntrl0.power_state]
type=PowerState
clk_gate_bins=20
clk_gate_max=1000000000000
clk_gate_min=1000
default_state=UNDEFINED
eventq_index=0
leaders=
possible_states=

[system.ruby.l2_cntrl0.responseFromL2Cache]
type=MessageBuffer
allow_zero_latency=false
buffer_size=0
eventq_index=0
max_dequeue_rate=0
ordered=false
randomization=ruby_system
routing_priority=0
out_port=system.ruby.network.in_port[4]

[system.ruby.l2_cntrl0.responseToL2Cache]
type=MessageBuffer
allow_zero_latency=false
buffer_size=0
eventq_index=0
max_dequeue_rate=0
ordered=false
randomization=ruby_system
routing_priority=0
in_port=system.ruby.network.out_port[4]

[system.ruby.l2_cntrl0.triggerQueue]
type=MessageBuffer
allow_zero_latency=false
buffer_size=0
eventq_index=0
max_dequeue_rate=0
ordered=true
randomization=ruby_system
routing_priority=0

[system.ruby.memctrl_clk_domain]
type=DerivedClockDomain
clk_divider=3
clk_domain=system.ruby.clk_domain
eventq_index=0

[system.ruby.network]
type=SimpleNetwork
children=ext_links0 ext_links1 ext_links2 int_links0 int_links1 int_links2 int_links3 int_links4 int_links5 power_state routers0 routers1 routers2 routers3
buffer_size=0
clk_domain=system.ruby.clk_domain
control_msg_size=8
data_msg_size=64
endpoint_bandwidth=1000
eventq_index=0
ext_links=system.ruby.network.ext_links0 system.ruby.network.ext_links1 system.ruby.network.ext_links2
int_links=system.ruby.network.int_links0 system.ruby.network.int_links1 system.ruby.network.int_links2 system.ruby.network.int_links3 system.ruby.network.int_links4 system.ruby.network.int_links5
netifs=
number_of_virtual_networks=3
physical_vnets_bandwidth=
physical_vnets_channels=
power_model=
power_state=system.ruby.network.power_state
routers=system.ruby.network.routers0 system.ruby.network.routers1 system.ruby.network.routers2 system.ruby.network.routers3
ruby_system=system.ruby
topology=Crossbar
in_port=system.ruby.l1_cntrl0.requestFromL1Cache.out_port system.ruby.l1_cntrl0.responseFromL1Cache.out_port system.ruby.l2_cntrl0.GlobalRequestFromL2Cache.out_port system.ruby.l2_cntrl0.L1RequestFromL2Cache.out_port system.ruby.l2_cntrl0.responseFromL2Cache.out_port system.ruby.dir_cntrl0.responseFromDir.out_port system.ruby.dir_cntrl0.forwardFromDir.out_port
out_port=system.ruby.l1_cntrl0.requestToL1Cache.in_port system.ruby.l1_cntrl0.responseToL1Cache.in_port system.ruby.l2_cntrl0.GlobalRequestToL2Cache.in_port system.ruby.l2_cntrl0.L1RequestToL2Cache.in_port system.ruby.l2_cntrl0.responseToL2Cache.in_port system.ruby.dir_cntrl0.requestToDir.in_port system.ruby.dir_cntrl0.responseToDir.in_port

[system.ruby.network.ext_links0]
type=SimpleExtLink
bandwidth_factor=16
eventq_index=0
ext_node=system.ruby.l1_cntrl0
int_node=system.ruby.network.routers0
latency=1
link_id=0
supported_vnets=
weight=1

[system.ruby.network.ext_links1]
type=SimpleExtLink
bandwidth_factor=16
eventq_index=0
ext_node=system.ruby.l2_cntrl0
int_node=system.ruby.network.routers1
latency=1
link_id=1
supported_vnets=
weight=1

[system.ruby.network.ext_links2]
type=SimpleExtLink
bandwidth_factor=16
eventq_index=0
ext_node=system.ruby.dir_cntrl0
int_node=system.ruby.network.routers2
latency=1
link_id=2
supported_vnets=
weight=1

[system.ruby.network.int_links0]
type=SimpleIntLink
children=buffers0 buffers1 buffers2
bandwidth_factor=16
buffers=system.ruby.network.int_links0.buffers0 system.ruby.network.int_links0.buffers1 system.ruby.network.int_links0.buffers2
dst_inport=
dst_node=system.ruby.network.routers3
eventq_index=0
latency=1
link_id=3
src_node=system.ruby.network.routers0
src_outport=
supported_vnets=
weight=1

[system.ruby.network.int_links0.buffers0]
type=MessageBuffer
allow_zero_latency=false
buffer_size=0
eventq_index=0
max_dequeue_rate=0
ordered=true
randomization=ruby_system
routing_priority=0

[system.ruby.network.int_links0.buffers1]
type=MessageBuffer
allow_zero_latency=false
buffer_size=0
eventq_index=0
max_dequeue_rate=0
ordered=true
randomization=ruby_system
routing_priority=0

[system.ruby.network.int_links0.buffers2]
type=MessageBuffer
allow_zero_latency=false
buffer_size=0
eventq_index=0
max_dequeue_rate=0
ordered=true
randomization=ruby_system
routing_priority=0

[system.ruby.network.int_links1]
type=SimpleIntLink
children=buffers0 buffers1 buffers2
bandwidth_factor=16
buffers=system.ruby.network.int_links1.buffers0 system.ruby.network.int_links1.buffers1 system.ruby.network.int_links1.buffers2
dst_inport=
dst_node=system.ruby.network.routers3
eventq_index=0
latency=1
link_id=4
src_node=system.ruby.network.routers1
src_outport=
supported_vnets=
weight=1

[system.ruby.network.int_links1.buffers0]
type=MessageBuffer
allow_zero_latency=false
buffer_size=0
eventq_index=0
max_dequeue_rate=0
ordered=true
randomization=ruby_system
routing_priority=0

[system.ruby.network.int_links1.buffers1]
type=MessageBuffer
allow_zero_latency=false
buffer_size=0
eventq_index=0
max_dequeue_rate=0
ordered=true
randomization=ruby_system
routing_priority=0

[system.ruby.network.int_links1.buffers2]
type=MessageBuffer
allow_zero_latency=false
buffer_size=0
eventq_index=0
max_dequeue_rate=0
ordered=true
randomization=ruby_system
routing_priority=0

[system.ruby.network.int_links2]
type=SimpleIntLink
children=buffers0 buffers1 buffers2
bandwidth_factor=16
buffers=system.ruby.network.int_links2.buffers0 system.ruby.network.int_links2.buffers1 system.ruby.network.int_links2.buffers2
dst_inport=
dst_node=system.ruby.network.routers3
eventq_index=0
latency=1
link_id=5
src_node=system.ruby.network.routers2
src_outport=
supported_vnets=
weight=1

[system.ruby.network.int_links2.buffers0]
type=MessageBuffer
allow_zero_latency=false
buffer_size=0
eventq_index=0
max_dequeue_rate=0
ordered=true
randomization=ruby_system
routing_priority=0

[system.ruby.network.int_links2.buffers1]
type=MessageBuffer
allow_zero_latency=false
buffer_size=0
eventq_index=0
max_dequeue_rate=0
ordered=true
randomization=ruby_system
routing_priority=0

[system.ruby.network.int_links2.buffers2]
type=MessageBuffer
allow_zero_latency=false
buffer_size=0
eventq_index=0
max_dequeue_rate=0
ordered=true
randomization=ruby_system
routing_priority=0

[system.ruby.network.int_links3]
type=SimpleIntLink
children=buffers0 buffers1 buffers2
bandwidth_factor=16
buffers=system.ruby.network.int_links3.buffers0 system.ruby.network.int_links3.buffers1 system.ruby.network.int_links3.buffers2
dst_inport=
dst_node=system.ruby.network.routers0
eventq_index=0
latency=1
link_id=6
src_node=system.ruby.network.routers3
src_outport=
supported_vnets=
weight=1

[system.ruby.network.int_links3.buffers0]
type=MessageBuffer
allow_zero_latency=false
buffer_size=0
eventq_index=0
max_dequeue_rate=0
ordered=true
randomization=ruby_system
routing_priority=0

[system.ruby.network.int_links3.buffers1]
type=MessageBuffer
allow_zero_latency=false
buffer_size=0
eventq_index=0
max_dequeue_rate=0
ordered=true
randomization=ruby_system
routing_priority=0

[system.ruby.network.int_links3.buffers2]
type=MessageBuffer
allow_zero_latency=false
buffer_size=0
eventq_index=0
max_dequeue_rate=0
ordered=true
randomization=ruby_system
routing_priority=0

[system.ruby.network.int_links4]
type=SimpleIntLink
children=buffers0 buffers1 buffers2
bandwidth_factor=16
buffers=system.ruby.network.int_links4.buffers0 system.ruby.network.int_links4.buffers1 system.ruby.network.int_links4.buffers2
dst_inport=
dst_node=system.ruby.network.routers1
eventq_index=0
latency=1
link_id=7
src_node=system.ruby.network.routers3
src_outport=
supported_vnets=
weight=1

[system.ruby.network.int_links4.buffers0]
type=MessageBuffer
allow_zero_latency=false
buffer_size=0
eventq_index=0
max_dequeue_rate=0
ordered=true
randomization=ruby_system
routing_priority=0

[system.ruby.network.int_links4.buffers1]
type=MessageBuffer
allow_zero_latency=false
buffer_size=0
eventq_index=0
max_dequeue_rate=0
ordered=true
randomization=ruby_system
routing_priority=0

[system.ruby.network.int_links4.buffers2]
type=MessageBuffer
allow_zero_latency=false
buffer_size=0
eventq_index=0
max_dequeue_rate=0
ordered=true
randomization=ruby_system
routing_priority=0

[system.ruby.network.int_links5]
type=SimpleIntLink
children=buffers0 buffers1 buffers2
bandwidth_factor=16
buffers=system.ruby.network.int_links5.buffers0 system.ruby.network.int_links5.buffers1 system.ruby.network.int_links5.buffers2
dst_inport=
dst_node=system.ruby.network.routers2
eventq_index=0
latency=1
link_id=8
src_node=system.ruby.network.routers3
src_outport=
supported_vnets=
weight=1

[system.ruby.network.int_links5.buffers0]
type=MessageBuffer
allow_zero_latency=false
buffer_size=0
eventq_index=0
max_dequeue_rate=0
ordered=true
randomization=ruby_system
routing_priority=0

[system.ruby.network.int_links5.buffers1]
type=MessageBuffer
allow_zero_latency=false
buffer_size=0
eventq_index=0
max_dequeue_rate=0
ordered=true
randomization=ruby_system
routing_priority=0

[system.ruby.network.int_links5.buffers2]
type=MessageBuffer
allow_zero_latency=false
buffer_size=0
eventq_index=0
max_dequeue_rate=0
ordered=true
randomization=ruby_system
routing_priority=0

[system.ruby.network.power_state]
type=PowerState
clk_gate_bins=20
clk_gate_max=1000000000000
clk_gate_min=1000
default_state=UNDEFINED
eventq_index=0
leaders=
possible_states=

[system.ruby.network.routers0]
type=Switch
children=port_buffers0 port_buffers1 port_buffers2 port_buffers3 port_buffers4 port_buffers5 power_state routing_unit
clk_domain=system.ruby.clk_domain
eventq_index=0
ext_routing_latency=1
int_routing_latency=1
latency=1
port_buffers=system.ruby.network.routers0.port_buffers0 system.ruby.network.routers0.port_buffers1 system.ruby.network.routers0.port_buffers2 system.ruby.network.routers0.port_buffers3 system.ruby.network.routers0.port_buffers4 system.ruby.network.routers0.port_buffers5
power_model=
power_state=system.ruby.network.routers0.power_state
router_id=0
routing_unit=system.ruby.network.routers0.routing_unit
virt_nets=3

[system.ruby.network.routers0.port_buffers0]
type=MessageBuffer
allow_zero_latency=true
buffer_size=0
eventq_index=0
max_dequeue_rate=0
ordered=true
randomization=ruby_system
routing_priority=0

[system.ruby.network.routers0.port_buffers1]
type=MessageBuffer
allow_zero_latency=true
buffer_size=0
eventq_index=0
max_dequeue_rate=0
ordered=true
randomization=ruby_system
routing_priority=0

[system.ruby.network.routers0.port_buffers2]
type=MessageBuffer
allow_zero_latency=true
buffer_size=0
eventq_index=0
max_dequeue_rate=0
ordered=true
randomization=ruby_system
routing_priority=0

[system.ruby.network.routers0.port_buffers3]
type=MessageBuffer
allow_zero_latency=true
buffer_size=0
eventq_index=0
max_dequeue_rate=0
ordered=true
randomization=ruby_system
routing_priority=0

[system.ruby.network.routers0.port_buffers4]
type=MessageBuffer
allow_zero_latency=true
buffer_size=0
eventq_index=0
max_dequeue_rate=0
ordered=true
randomization=ruby_system
routing_priority=0

[system.ruby.network.routers0.port_buffers5]
type=MessageBuffer
allow_zero_latency=true
buffer_size=0
eventq_index=0
max_dequeue_rate=0
ordered=true
randomization=ruby_system
routing_priority=0

[system.ruby.network.routers0.power_state]
type=PowerState
clk_gate_bins=20
clk_gate_max=1000000000000
clk_gate_min=1000
default_state=UNDEFINED
eventq_index=0
leaders=
possible_states=

[system.ruby.network.routers0.routing_unit]
type=WeightBased
adaptive_routing=false
eventq_index=0
