[root]
type=Root
children=system
eventq_index=0
full_system=false
sim_quantum=0
time_sync_enable=false
time_sync_period=100000000000
time_sync_spin_threshold=100000000

[system]
type=System
children=clk_domain cpu0 cpu1 cpu2 cpu3 cpu4 cpu5 cpu6 cpu7 cpu_clk_domain cpu_voltage_domain dvfs_handler mem_ctrls redirect_paths0 redirect_paths1 redirect_paths2 ruby sys_port_proxy voltage_domain workload
auto_unlink_shared_backstore=false
cache_line_size=64
eventq_index=0
exit_on_work_items=false
external_memory_ranges=
init_param=0
m5ops_base=0
mem_mode=timing
mem_ranges=0:2147483648
memories=system.mem_ctrls.dram
mmap_using_noreserve=false
multi_thread=false
num_work_ids=16
readfile=
redirect_paths=system.redirect_paths0 system.redirect_paths1 system.redirect_paths2
shadow_rom_ranges=
shared_backstore=
symbolfile=
thermal_components=
thermal_model=Null
work_begin_ckpt_count=0
work_begin_cpu_id_exit=-1
work_begin_exit_count=0
work_cpus_ckpt_count=0
work_end_ckpt_count=0
work_end_exit_count=0
work_item_id=-1
workload=system.workload
system_port=system.sys_port_proxy.in_ports[0]

[system.clk_domain]
type=SrcClockDomain
clock=1000
domain_id=-1
eventq_index=0
init_perf_level=0
voltage_domain=system.voltage_domain

[system.cpu0]
type=BaseTimingSimpleCPU
children=decoder interrupts isa mmu power_state tracer workload
branchPred=Null
checker=Null
clk_domain=system.cpu_clk_domain
cpu_id=0
decoder=system.cpu0.decoder
do_checkpoint_insts=true
do_statistics_insts=true
eventq_index=0
function_trace=false
function_trace_start=0
interrupts=system.cpu0.interrupts
isa=system.cpu0.isa
max_insts_all_threads=0
max_insts_any_thread=0
mmu=system.cpu0.mmu
numThreads=1
power_gating_on_idle=false
power_model=
power_state=system.cpu0.power_state
progress_interval=0
pwr_gating_latency=300
simpoint_start_insts=
socket_id=0
switched_out=false
syscallRetryLatency=10000
system=system
tracer=system.cpu0.tracer
workload=system.cpu0.workload
dcache_port=system.ruby.l1_cntrl0.sequencer.in_ports[1]
icache_port=system.ruby.l1_cntrl0.sequencer.in_ports[0]

[system.cpu0.decoder]
type=X86Decoder
eventq_index=0
isa=system.cpu0.isa

[system.cpu0.interrupts]
type=X86LocalApic
children=clk_domain
clk_domain=system.cpu0.interrupts.clk_domain
eventq_index=0
int_latency=1000
pio_latency=100000
system=system
int_requestor=system.ruby.l1_cntrl0.sequencer.in_ports[4]
int_responder=system.ruby.l1_cntrl0.sequencer.interrupt_out_port[1]
pio=system.ruby.l1_cntrl0.sequencer.interrupt_out_port[0]

[system.cpu0.interrupts.clk_domain]
type=DerivedClockDomain
clk_divider=16
clk_domain=system.cpu_clk_domain
eventq_index=0

[system.cpu0.isa]
type=X86ISA
APMInfo=2147483672 1752462657 1769238117 1145913699
CacheParams=0 0 0 0
ExtendedFeatures=0 25165824 0 0
ExtendedState=0 0 0 0 0 0 0 0
FamilyModelStepping=134993 2053 4024171519 521
FamilyModelSteppingBrandFeatures=134993 1029 3956538367 131073
L1CacheAndTLB=4278779656 4280352544 1073873216 1073873216
L2L3CacheAndL2TLB=0 1107313152 0 67141952
LongModeAddressSize=12336 0 0 0
eventq_index=0
name_string=Fake gem5 x86_64 CPU
vendor_string=HygonGenuine

[system.cpu0.mmu]
type=X86MMU
children=dtb itb
dtb=system.cpu0.mmu.dtb
eventq_index=0
itb=system.cpu0.mmu.itb

[system.cpu0.mmu.dtb]
type=X86TLB
children=walker
entry_type=data
eventq_index=0
next_level=Null
size=64
system=system
walker=system.cpu0.mmu.dtb.walker

[system.cpu0.mmu.dtb.walker]
type=X86PagetableWalker
children=power_state
clk_domain=system.cpu_clk_domain
eventq_index=0
num_squash_per_cycle=4
power_model=
power_state=system.cpu0.mmu.dtb.walker.power_state
system=system
port=system.ruby.l1_cntrl0.sequencer.in_ports[3]

[system.cpu0.mmu.dtb.walker.power_state]
type=PowerState
clk_gate_bins=20
clk_gate_max=1000000000000
clk_gate_min=1000
default_state=UNDEFINED
eventq_index=0
leaders=
possible_states=

[system.cpu0.mmu.itb]
type=X86TLB
children=walker
entry_type=instruction
eventq_index=0
next_level=Null
size=64
system=system
walker=system.cpu0.mmu.itb.walker

[system.cpu0.mmu.itb.walker]
type=X86PagetableWalker
children=power_state
clk_domain=system.cpu_clk_domain
eventq_index=0
num_squash_per_cycle=4
power_model=
power_state=system.cpu0.mmu.itb.walker.power_state
system=system
port=system.ruby.l1_cntrl0.sequencer.in_ports[2]

[system.cpu0.mmu.itb.walker.power_state]
type=PowerState
clk_gate_bins=20
clk_gate_max=1000000000000
clk_gate_min=1000
default_state=UNDEFINED
eventq_index=0
leaders=
possible_states=

[system.cpu0.power_state]
type=PowerState
clk_gate_bins=20
clk_gate_max=1000000000000
clk_gate_min=1000
default_state=UNDEFINED
eventq_index=0
leaders=
possible_states=ON CLK_GATED OFF

[system.cpu0.tracer]
type=ExeTracer
children=disassembler
disassembler=system.cpu0.tracer.disassembler
eventq_index=0

[system.cpu0.tracer.disassembler]
type=InstDisassembler
eventq_index=0

[system.cpu0.workload]
type=Process
cmd=./tests/coh_bench 0 8 10000 padded 0 0
cwd=/home/vboxuser/gem5
drivers=
egid=100
env=
errout=cerr
euid=100
eventq_index=0
executable=./tests/coh_bench
gid=1000
input=cin
kvmInSE=false
maxStackSize=67108864
output=cout
pgid=100
pid=100
ppid=0
release=5.1.0
simpoint=0
system=system
uid=100
useArchPT=false
zeroPages=true

[system.cpu1]
type=BaseTimingSimpleCPU
children=decoder interrupts isa mmu power_state tracer workload
branchPred=Null
checker=Null
clk_domain=system.cpu_clk_domain
cpu_id=1
decoder=system.cpu1.decoder
do_checkpoint_insts=true
do_statistics_insts=true
eventq_index=0
function_trace=false
function_trace_start=0
interrupts=system.cpu1.interrupts
isa=system.cpu1.isa
max_insts_all_threads=0
max_insts_any_thread=0
mmu=system.cpu1.mmu
numThreads=1
power_gating_on_idle=false
power_model=
power_state=system.cpu1.power_state
progress_interval=0
pwr_gating_latency=300
simpoint_start_insts=
socket_id=0
switched_out=false
syscallRetryLatency=10000
system=system
tracer=system.cpu1.tracer
workload=system.cpu1.workload
dcache_port=system.ruby.l1_cntrl1.sequencer.in_ports[1]
icache_port=system.ruby.l1_cntrl1.sequencer.in_ports[0]

[system.cpu1.decoder]
type=X86Decoder
eventq_index=0
isa=system.cpu1.isa

[system.cpu1.interrupts]
type=X86LocalApic
children=clk_domain
clk_domain=system.cpu1.interrupts.clk_domain
eventq_index=0
int_latency=1000
pio_latency=100000
system=system
int_requestor=system.ruby.l1_cntrl1.sequencer.in_ports[4]
int_responder=system.ruby.l1_cntrl1.sequencer.interrupt_out_port[1]
pio=system.ruby.l1_cntrl1.sequencer.interrupt_out_port[0]

[system.cpu1.interrupts.clk_domain]
type=DerivedClockDomain
clk_divider=16
clk_domain=system.cpu_clk_domain
eventq_index=0

[system.cpu1.isa]
type=X86ISA
APMInfo=2147483672 1752462657 1769238117 1145913699
CacheParams=0 0 0 0
ExtendedFeatures=0 25165824 0 0
ExtendedState=0 0 0 0 0 0 0 0
FamilyModelStepping=134993 2053 4024171519 521
FamilyModelSteppingBrandFeatures=134993 1029 3956538367 131073
L1CacheAndTLB=4278779656 4280352544 1073873216 1073873216
L2L3CacheAndL2TLB=0 1107313152 0 67141952
LongModeAddressSize=12336 0 0 0
eventq_index=0
name_string=Fake gem5 x86_64 CPU
vendor_string=HygonGenuine

[system.cpu1.mmu]
type=X86MMU
children=dtb itb
dtb=system.cpu1.mmu.dtb
eventq_index=0
itb=system.cpu1.mmu.itb

[system.cpu1.mmu.dtb]
type=X86TLB
children=walker
entry_type=data
eventq_index=0
next_level=Null
size=64
system=system
walker=system.cpu1.mmu.dtb.walker

[system.cpu1.mmu.dtb.walker]
type=X86PagetableWalker
children=power_state
clk_domain=system.cpu_clk_domain
eventq_index=0
num_squash_per_cycle=4
power_model=
power_state=system.cpu1.mmu.dtb.walker.power_state
system=system
port=system.ruby.l1_cntrl1.sequencer.in_ports[3]

[system.cpu1.mmu.dtb.walker.power_state]
type=PowerState
clk_gate_bins=20
clk_gate_max=1000000000000
clk_gate_min=1000
default_state=UNDEFINED
eventq_index=0
leaders=
possible_states=

[system.cpu1.mmu.itb]
type=X86TLB
children=walker
entry_type=instruction
eventq_index=0
next_level=Null
size=64
system=system
walker=system.cpu1.mmu.itb.walker

[system.cpu1.mmu.itb.walker]
type=X86PagetableWalker
children=power_state
clk_domain=system.cpu_clk_domain
eventq_index=0
num_squash_per_cycle=4
power_model=
power_state=system.cpu1.mmu.itb.walker.power_state
system=system
port=system.ruby.l1_cntrl1.sequencer.in_ports[2]

[system.cpu1.mmu.itb.walker.power_state]
type=PowerState
clk_gate_bins=20
clk_gate_max=1000000000000
clk_gate_min=1000
default_state=UNDEFINED
eventq_index=0
leaders=
possible_states=

[system.cpu1.power_state]
type=PowerState
clk_gate_bins=20
clk_gate_max=1000000000000
clk_gate_min=1000
default_state=UNDEFINED
eventq_index=0
leaders=
possible_states=ON CLK_GATED OFF

[system.cpu1.tracer]
type=ExeTracer
children=disassembler
disassembler=system.cpu1.tracer.disassembler
eventq_index=0

[system.cpu1.tracer.disassembler]
type=InstDisassembler
eventq_index=0

[system.cpu1.workload]
type=Process
cmd=./tests/coh_bench 1 8 10000 padded 0 0
cwd=/home/vboxuser/gem5
drivers=
egid=100
env=
errout=cerr
euid=100
eventq_index=0
executable=./tests/coh_bench
gid=1000
input=cin
kvmInSE=false
maxStackSize=67108864
output=cout
pgid=100
pid=101
ppid=0
release=5.1.0
simpoint=0
system=system
uid=100
useArchPT=false
zeroPages=true

[system.cpu2]
type=BaseTimingSimpleCPU
children=decoder interrupts isa mmu power_state tracer workload
branchPred=Null
checker=Null
clk_domain=system.cpu_clk_domain
cpu_id=2
decoder=system.cpu2.decoder
do_checkpoint_insts=true
do_statistics_insts=true
eventq_index=0
function_trace=false
function_trace_start=0
interrupts=system.cpu2.interrupts
isa=system.cpu2.isa
max_insts_all_threads=0
max_insts_any_thread=0
mmu=system.cpu2.mmu
numThreads=1
power_gating_on_idle=false
power_model=
power_state=system.cpu2.power_state
progress_interval=0
pwr_gating_latency=300
simpoint_start_insts=
socket_id=0
switched_out=false
syscallRetryLatency=10000
system=system
tracer=system.cpu2.tracer
workload=system.cpu2.workload
dcache_port=system.ruby.l1_cntrl2.sequencer.in_ports[1]
icache_port=system.ruby.l1_cntrl2.sequencer.in_ports[0]

[system.cpu2.decoder]
type=X86Decoder
eventq_index=0
isa=system.cpu2.isa

[system.cpu2.interrupts]
type=X86LocalApic
children=clk_domain
clk_domain=system.cpu2.interrupts.clk_domain
eventq_index=0
int_latency=1000
pio_latency=100000
system=system
int_requestor=system.ruby.l1_cntrl2.sequencer.in_ports[4]
int_responder=system.ruby.l1_cntrl2.sequencer.interrupt_out_port[1]
pio=system.ruby.l1_cntrl2.sequencer.interrupt_out_port[0]

[system.cpu2.interrupts.clk_domain]
type=DerivedClockDomain
clk_divider=16
clk_domain=system.cpu_clk_domain
eventq_index=0

[system.cpu2.isa]
type=X86ISA
APMInfo=2147483672 1752462657 1769238117 1145913699
CacheParams=0 0 0 0
ExtendedFeatures=0 25165824 0 0
ExtendedState=0 0 0 0 0 0 0 0
FamilyModelStepping=134993 2053 4024171519 521
FamilyModelSteppingBrandFeatures=134993 1029 3956538367 131073
L1CacheAndTLB=4278779656 4280352544 1073873216 1073873216
L2L3CacheAndL2TLB=0 1107313152 0 67141952
LongModeAddressSize=12336 0 0 0
eventq_index=0
name_string=Fake gem5 x86_64 CPU
vendor_string=HygonGenuine

[system.cpu2.mmu]
type=X86MMU
children=dtb itb
dtb=system.cpu2.mmu.dtb
eventq_index=0
itb=system.cpu2.mmu.itb

[system.cpu2.mmu.dtb]
type=X86TLB
children=walker
entry_type=data
eventq_index=0
next_level=Null
size=64
system=system
walker=system.cpu2.mmu.dtb.walker

[system.cpu2.mmu.dtb.walker]
type=X86PagetableWalker
children=power_state
clk_domain=system.cpu_clk_domain
eventq_index=0
num_squash_per_cycle=4
power_model=
power_state=system.cpu2.mmu.dtb.walker.power_state
system=system
port=system.ruby.l1_cntrl2.sequencer.in_ports[3]

[system.cpu2.mmu.dtb.walker.power_state]
type=PowerState
clk_gate_bins=20
clk_gate_max=1000000000000
clk_gate_min=1000
default_state=UNDEFINED
eventq_index=0
leaders=
possible_states=

[system.cpu2.mmu.itb]
type=X86TLB
children=walker
entry_type=instruction
eventq_index=0
next_level=Null
size=64
system=system
walker=system.cpu2.mmu.itb.walker

[system.cpu2.mmu.itb.walker]
type=X86PagetableWalker
children=power_state
clk_domain=system.cpu_clk_domain
eventq_index=0
num_squash_per_cycle=4
power_model=
power_state=system.cpu2.mmu.itb.walker.power_state
system=system
port=system.ruby.l1_cntrl2.sequencer.in_ports[2]

[system.cpu2.mmu.itb.walker.power_state]
type=PowerState
clk_gate_bins=20
clk_gate_max=1000000000000
clk_gate_min=1000
default_state=UNDEFINED
eventq_index=0
leaders=
possible_states=

[system.cpu2.power_state]
type=PowerState
clk_gate_bins=20
clk_gate_max=1000000000000
clk_gate_min=1000
default_state=UNDEFINED
eventq_index=0
leaders=
possible_states=ON CLK_GATED OFF

[system.cpu2.tracer]
type=ExeTracer
children=disassembler
disassembler=system.cpu2.tracer.disassembler
eventq_index=0

[system.cpu2.tracer.disassembler]
type=InstDisassembler
eventq_index=0

[system.cpu2.workload]
type=Process
cmd=./tests/coh_bench 2 8 10000 padded 0 0
cwd=/home/vboxuser/gem5
drivers=
egid=100
env=
errout=cerr
euid=100
eventq_index=0
executable=./tests/coh_bench
gid=1000
input=cin
kvmInSE=false
maxStackSize=67108864
output=cout
pgid=100
pid=102
ppid=0
release=5.1.0
simpoint=0
system=system
uid=100
useArchPT=false
zeroPages=true

[system.cpu3]
type=BaseTimingSimpleCPU
children=decoder interrupts isa mmu power_state tracer workload
branchPred=Null
checker=Null
clk_domain=system.cpu_clk_domain
cpu_id=3
decoder=system.cpu3.decoder
do_checkpoint_insts=true
do_statistics_insts=true
eventq_index=0
function_trace=false
function_trace_start=0
interrupts=system.cpu3.interrupts
isa=system.cpu3.isa
max_insts_all_threads=0
max_insts_any_thread=0
mmu=system.cpu3.mmu
numThreads=1
power_gating_on_idle=false
power_model=
power_state=system.cpu3.power_state
progress_interval=0
pwr_gating_latency=300
simpoint_start_insts=
socket_id=0
switched_out=false
syscallRetryLatency=10000
system=system
tracer=system.cpu3.tracer
workload=system.cpu3.workload
dcache_port=system.ruby.l1_cntrl3.sequencer.in_ports[1]
icache_port=system.ruby.l1_cntrl3.sequencer.in_ports[0]

[system.cpu3.decoder]
type=X86Decoder
eventq_index=0
isa=system.cpu3.isa

[system.cpu3.interrupts]
type=X86LocalApic
children=clk_domain
clk_domain=system.cpu3.interrupts.clk_domain
eventq_index=0
int_latency=1000
pio_latency=100000
system=system
int_requestor=system.ruby.l1_cntrl3.sequencer.in_ports[4]
int_responder=system.ruby.l1_cntrl3.sequencer.interrupt_out_port[1]
pio=system.ruby.l1_cntrl3.sequencer.interrupt_out_port[0]

[system.cpu3.interrupts.clk_domain]
type=DerivedClockDomain
clk_divider=16
clk_domain=system.cpu_clk_domain
eventq_index=0

[system.cpu3.isa]
type=X86ISA
APMInfo=2147483672 1752462657 1769238117 1145913699
CacheParams=0 0 0 0
ExtendedFeatures=0 25165824 0 0
ExtendedState=0 0 0 0 0 0 0 0
FamilyModelStepping=134993 2053 4024171519 521
FamilyModelSteppingBrandFeatures=134993 1029 3956538367 131073
L1CacheAndTLB=4278779656 4280352544 1073873216 1073873216
L2L3CacheAndL2TLB=0 1107313152 0 67141952
LongModeAddressSize=12336 0 0 0
eventq_index=0
name_string=Fake gem5 x86_64 CPU
vendor_string=HygonGenuine

[system.cpu3.mmu]
type=X86MMU
children=dtb itb
dtb=system.cpu3.mmu.dtb
eventq_index=0
itb=system.cpu3.mmu.itb

[system.cpu3.mmu.dtb]
type=X86TLB
children=walker
entry_type=data
eventq_index=0
next_level=Null
size=64
system=system
walker=system.cpu3.mmu.dtb.walker

[system.cpu3.mmu.dtb.walker]
type=X86PagetableWalker
children=power_state
clk_domain=system.cpu_clk_domain
eventq_index=0
num_squash_per_cycle=4
power_model=
power_state=system.cpu3.mmu.dtb.walker.power_state
system=system
port=system.ruby.l1_cntrl3.sequencer.in_ports[3]

[system.cpu3.mmu.dtb.walker.power_state]
type=PowerState
clk_gate_bins=20
clk_gate_max=1000000000000
clk_gate_min=1000
default_state=UNDEFINED
eventq_index=0
leaders=
possible_states=

[system.cpu3.mmu.itb]
type=X86TLB
children=walker
entry_type=instruction
eventq_index=0
next_level=Null
size=64
system=system
walker=system.cpu3.mmu.itb.walker

[system.cpu3.mmu.itb.walker]
type=X86PagetableWalker
children=power_state
clk_domain=system.cpu_clk_domain
eventq_index=0
num_squash_per_cycle=4
power_model=
power_state=system.cpu3.mmu.itb.walker.power_state
system=system
port=system.ruby.l1_cntrl3.sequencer.in_ports[2]

[system.cpu3.mmu.itb.walker.power_state]
type=PowerState
clk_gate_bins=20
clk_gate_max=1000000000000
clk_gate_min=1000
default_state=UNDEFINED
eventq_index=0
leaders=
possible_states=

[system.cpu3.power_state]
type=PowerState
clk_gate_bins=20
clk_gate_max=1000000000000
clk_gate_min=1000
default_state=UNDEFINED
eventq_index=0
leaders=
possible_states=ON CLK_GATED OFF

[system.cpu3.tracer]
type=ExeTracer
children=disassembler
disassembler=system.cpu3.tracer.disassembler
eventq_index=0

[system.cpu3.tracer.disassembler]
type=InstDisassembler
eventq_index=0

[system.cpu3.workload]
type=Process
cmd=./tests/coh_bench 3 8 10000 padded 0 0
cwd=/home/vboxuser/gem5
drivers=
egid=100
env=
errout=cerr
euid=100
eventq_index=0
executable=./tests/coh_bench
gid=1000
input=cin
kvmInSE=false
maxStackSize=67108864
output=cout
pgid=100
pid=103
ppid=0
release=5.1.0
simpoint=0
system=system
uid=100
useArchPT=false
zeroPages=true

[system.cpu4]
type=BaseTimingSimpleCPU
children=decoder interrupts isa mmu power_state tracer workload
branchPred=Null
checker=Null
clk_domain=system.cpu_clk_domain
cpu_id=4
decoder=system.cpu4.decoder
do_checkpoint_insts=true
do_statistics_insts=true
eventq_index=0
function_trace=false
function_trace_start=0
interrupts=system.cpu4.interrupts
isa=system.cpu4.isa
max_insts_all_threads=0
max_insts_any_thread=0
mmu=system.cpu4.mmu
numThreads=1
power_gating_on_idle=false
power_model=
power_state=system.cpu4.power_state
progress_interval=0
pwr_gating_latency=300
simpoint_start_insts=
socket_id=0
switched_out=false
syscallRetryLatency=10000
system=system
tracer=system.cpu4.tracer
workload=system.cpu4.workload
dcache_port=system.ruby.l1_cntrl4.sequencer.in_ports[1]
icache_port=system.ruby.l1_cntrl4.sequencer.in_ports[0]

[system.cpu4.decoder]
type=X86Decoder
eventq_index=0
isa=system.cpu4.isa

[system.cpu4.interrupts]
type=X86LocalApic
children=clk_domain
clk_domain=system.cpu4.interrupts.clk_domain
eventq_index=0
int_latency=1000
pio_latency=100000
system=system
int_requestor=system.ruby.l1_cntrl4.sequencer.in_ports[4]
int_responder=system.ruby.l1_cntrl4.sequencer.interrupt_out_port[1]
pio=system.ruby.l1_cntrl4.sequencer.interrupt_out_port[0]

[system.cpu4.interrupts.clk_domain]
type=DerivedClockDomain
clk_divider=16
clk_domain=system.cpu_clk_domain
eventq_index=0

[system.cpu4.isa]
type=X86ISA
APMInfo=2147483672 1752462657 1769238117 1145913699
CacheParams=0 0 0 0
ExtendedFeatures=0 25165824 0 0
ExtendedState=0 0 0 0 0 0 0 0
FamilyModelStepping=134993 2053 4024171519 521
FamilyModelSteppingBrandFeatures=134993 1029 3956538367 131073
L1CacheAndTLB=4278779656 4280352544 1073873216 1073873216
L2L3CacheAndL2TLB=0 1107313152 0 67141952
LongModeAddressSize=12336 0 0 0
eventq_index=0
name_string=Fake gem5 x86_64 CPU
vendor_string=HygonGenuine

[system.cpu4.mmu]
type=X86MMU
children=dtb itb
dtb=system.cpu4.mmu.dtb
eventq_index=0
itb=system.cpu4.mmu.itb

[system.cpu4.mmu.dtb]
type=X86TLB
children=walker
entry_type=data
eventq_index=0
next_level=Null
size=64
system=system
walker=system.cpu4.mmu.dtb.walker

[system.cpu4.mmu.dtb.walker]
type=X86PagetableWalker
children=power_state
clk_domain=system.cpu_clk_domain
eventq_index=0
num_squash_per_cycle=4
power_model=
power_state=system.cpu4.mmu.dtb.walker.power_state
system=system
port=system.ruby.l1_cntrl4.sequencer.in_ports[3]

[system.cpu4.mmu.dtb.walker.power_state]
type=PowerState
clk_gate_bins=20
clk_gate_max=1000000000000
clk_gate_min=1000
default_state=UNDEFINED
eventq_index=0
leaders=
possible_states=

[system.cpu4.mmu.itb]
type=X86TLB
children=walker
entry_type=instruction
eventq_index=0
next_level=Null
size=64
system=system
walker=system.cpu4.mmu.itb.walker

[system.cpu4.mmu.itb.walker]
type=X86PagetableWalker
children=power_state
clk_domain=system.cpu_clk_domain
eventq_index=0
num_squash_per_cycle=4
power_model=
power_state=system.cpu4.mmu.itb.walker.power_state
system=system
port=system.ruby.l1_cntrl4.sequencer.in_ports[2]

[system.cpu4.mmu.itb.walker.power_state]
type=PowerState
clk_gate_bins=20
clk_gate_max=1000000000000
clk_gate_min=1000
default_state=UNDEFINED
eventq_index=0
leaders=
possible_states=

[system.cpu4.power_state]
type=PowerState
clk_gate_bins=20
clk_gate_max=1000000000000
clk_gate_min=1000
default_state=UNDEFINED
eventq_index=0
leaders=
possible_states=ON CLK_GATED OFF

[system.cpu4.tracer]
type=ExeTracer
children=disassembler
disassembler=system.cpu4.tracer.disassembler
eventq_index=0

[system.cpu4.tracer.disassembler]
type=InstDisassembler
eventq_index=0

[system.cpu4.workload]
type=Process
cmd=./tests/coh_bench 4 8 10000 padded 0 0
cwd=/home/vboxuser/gem5
drivers=
egid=100
env=
errout=cerr
euid=100
eventq_index=0
executable=./tests/coh_bench
gid=1000
input=cin
kvmInSE=false
maxStackSize=67108864
output=cout
pgid=100
pid=104
ppid=0
release=5.1.0
simpoint=0
system=system
uid=100
useArchPT=false
zeroPages=true

[system.cpu5]
type=BaseTimingSimpleCPU
children=decoder interrupts isa mmu power_state tracer workload
branchPred=Null
checker=Null
clk_domain=system.cpu_clk_domain
cpu_id=5
decoder=system.cpu5.decoder
do_checkpoint_insts=true
do_statistics_insts=true
eventq_index=0
function_trace=false
function_trace_start=0
interrupts=system.cpu5.interrupts
isa=system.cpu5.isa
max_insts_all_threads=0
max_insts_any_thread=0
mmu=system.cpu5.mmu
numThreads=1
power_gating_on_idle=false
power_model=
power_state=system.cpu5.power_state
progress_interval=0
pwr_gating_latency=300
simpoint_start_insts=
socket_id=0
switched_out=false
syscallRetryLatency=10000
system=system
tracer=system.cpu5.tracer
workload=system.cpu5.workload
dcache_port=system.ruby.l1_cntrl5.sequencer.in_ports[1]
icache_port=system.ruby.l1_cntrl5.sequencer.in_ports[0]

[system.cpu5.decoder]
type=X86Decoder
eventq_index=0
isa=system.cpu5.isa

[system.cpu5.interrupts]
type=X86LocalApic
children=clk_domain
clk_domain=system.cpu5.interrupts.clk_domain
eventq_index=0
int_latency=1000
pio_latency=100000
system=system
int_requestor=system.ruby.l1_cntrl5.sequencer.in_ports[4]
int_responder=system.ruby.l1_cntrl5.sequencer.interrupt_out_port[1]
pio=system.ruby.l1_cntrl5.sequencer.interrupt_out_port[0]

[system.cpu5.interrupts.clk_domain]
type=DerivedClockDomain
clk_divider=16
clk_domain=system.cpu_clk_domain
eventq_index=0

[system.cpu5.isa]
type=X86ISA
APMInfo=2147483672 1752462657 1769238117 1145913699
CacheParams=0 0 0 0
ExtendedFeatures=0 25165824 0 0
ExtendedState=0 0 0 0 0 0 0 0
FamilyModelStepping=134993 2053 4024171519 521
FamilyModelSteppingBrandFeatures=134993 1029 3956538367 131073
L1CacheAndTLB=4278779656 4280352544 1073873216 1073873216
L2L3CacheAndL2TLB=0 1107313152 0 67141952
LongModeAddressSize=12336 0 0 0
eventq_index=0
name_string=Fake gem5 x86_64 CPU
vendor_string=HygonGenuine

[system.cpu5.mmu]
type=X86MMU
children=dtb itb
dtb=system.cpu5.mmu.dtb
eventq_index=0
itb=system.cpu5.mmu.itb

[system.cpu5.mmu.dtb]
type=X86TLB
children=walker
entry_type=data
eventq_index=0
next_level=Null
size=64
system=system
walker=system.cpu5.mmu.dtb.walker

[system.cpu5.mmu.dtb.walker]
type=X86PagetableWalker
children=power_state
clk_domain=system.cpu_clk_domain
eventq_index=0
num_squash_per_cycle=4
power_model=
power_state=system.cpu5.mmu.dtb.walker.power_state
system=system
port=system.ruby.l1_cntrl5.sequencer.in_ports[3]

[system.cpu5.mmu.dtb.walker.power_state]
type=PowerState
clk_gate_bins=20
clk_gate_max=1000000000000
clk_gate_min=1000
default_state=UNDEFINED
eventq_index=0
leaders=
possible_states=

[system.cpu5.mmu.itb]
type=X86TLB
children=walker
entry_type=instruction
eventq_index=0
next_level=Null
size=64
system=system
walker=system.cpu5.mmu.itb.walker

[system.cpu5.mmu.itb.walker]
type=X86PagetableWalker
children=power_state
clk_domain=system.cpu_clk_domain
eventq_index=0
num_squash_per_cycle=4
power_model=
power_state=system.cpu5.mmu.itb.walker.power_state
system=system
port=system.ruby.l1_cntrl5.sequencer.in_ports[2]

[system.cpu5.mmu.itb.walker.power_state]
type=PowerState
clk_gate_bins=20
clk_gate_max=1000000000000
clk_gate_min=1000
default_state=UNDEFINED
eventq_index=0
leaders=
possible_states=

[system.cpu5.power_state]
type=PowerState
clk_gate_bins=20
clk_gate_max=1000000000000
clk_gate_min=1000
default_state=UNDEFINED
eventq_index=0
leaders=
possible_states=ON CLK_GATED OFF

[system.cpu5.tracer]
type=ExeTracer
children=disassembler
disassembler=system.cpu5.tracer.disassembler
eventq_index=0

[system.cpu5.tracer.disassembler]
type=InstDisassembler
eventq_index=0

[system.cpu5.workload]
type=Process
cmd=./tests/coh_bench 5 8 10000 padded 0 0
cwd=/home/vboxuser/gem5
drivers=
egid=100
env=
errout=cerr
euid=100
eventq_index=0
executable=./tests/coh_bench
gid=1000
input=cin
kvmInSE=false
maxStackSize=67108864
output=cout
pgid=100
pid=105
ppid=0
release=5.1.0
simpoint=0
system=system
uid=100
useArchPT=false
zeroPages=true

[system.cpu6]
type=BaseTimingSimpleCPU
children=decoder interrupts isa mmu power_state tracer workload
branchPred=Null
checker=Null
clk_domain=system.cpu_clk_domain
cpu_id=6
decoder=system.cpu6.decoder
do_checkpoint_insts=true
do_statistics_insts=true
eventq_index=0
function_trace=false
function_trace_start=0
interrupts=system.cpu6.interrupts
isa=system.cpu6.isa
max_insts_all_threads=0
max_insts_any_thread=0
mmu=system.cpu6.mmu
numThreads=1
power_gating_on_idle=false
power_model=
power_state=system.cpu6.power_state
progress_interval=0
pwr_gating_latency=300
simpoint_start_insts=
socket_id=0
switched_out=false
syscallRetryLatency=10000
system=system
tracer=system.cpu6.tracer
workload=system.cpu6.workload
dcache_port=system.ruby.l1_cntrl6.sequencer.in_ports[1]
icache_port=system.ruby.l1_cntrl6.sequencer.in_ports[0]

[system.cpu6.decoder]
type=X86Decoder
eventq_index=0
isa=system.cpu6.isa

[system.cpu6.interrupts]
type=X86LocalApic
children=clk_domain
clk_domain=system.cpu6.interrupts.clk_domain
eventq_index=0
int_latency=1000
pio_latency=100000
system=system
int_requestor=system.ruby.l1_cntrl6.sequencer.in_ports[4]
int_responder=system.ruby.l1_cntrl6.sequencer.interrupt_out_port[1]
pio=system.ruby.l1_cntrl6.sequencer.interrupt_out_port[0]

[system.cpu6.interrupts.clk_domain]
type=DerivedClockDomain
clk_divider=16
clk_domain=system.cpu_clk_domain
eventq_index=0

[system.cpu6.isa]
type=X86ISA
APMInfo=2147483672 1752462657 1769238117 1145913699
CacheParams=0 0 0 0
ExtendedFeatures=0 25165824 0 0
ExtendedState=0 0 0 0 0 0 0 0
FamilyModelStepping=134993 2053 4024171519 521
FamilyModelSteppingBrandFeatures=134993 1029 3956538367 131073
L1CacheAndTLB=4278779656 4280352544 1073873216 1073873216
L2L3CacheAndL2TLB=0 1107313152 0 67141952
LongModeAddressSize=12336 0 0 0
eventq_index=0
name_string=Fake gem5 x86_64 CPU
vendor_string=HygonGenuine

[system.cpu6.mmu]
type=X86MMU
children=dtb itb
dtb=system.cpu6.mmu.dtb
eventq_index=0
itb=system.cpu6.mmu.itb

[system.cpu6.mmu.dtb]
type=X86TLB
children=walker
entry_type=data
eventq_index=0
next_level=Null
size=64
system=system
walker=system.cpu6.mmu.dtb.walker

[system.cpu6.mmu.dtb.walker]
type=X86PagetableWalker
children=power_state
clk_domain=system.cpu_clk_domain
eventq_index=0
num_squash_per_cycle=4
power_model=
power_state=system.cpu6.mmu.dtb.walker.power_state
system=system
port=system.ruby.l1_cntrl6.sequencer.in_ports[3]

[system.cpu6.mmu.dtb.walker.power_state]
type=PowerState
clk_gate_bins=20
clk_gate_max=1000000000000
clk_gate_min=1000
default_state=UNDEFINED
eventq_index=0
leaders=
possible_states=

[system.cpu6.mmu.itb]
type=X86TLB
children=walker
entry_type=instruction
eventq_index=0
next_level=Null
size=64
system=system
walker=system.cpu6.mmu.itb.walker

[system.cpu6.mmu.itb.walker]
type=X86PagetableWalker
children=power_state
clk_domain=system.cpu_clk_domain
eventq_index=0
num_squash_per_cycle=4
power_model=
power_state=system.cpu6.mmu.itb.walker.power_state
system=system
port=system.ruby.l1_cntrl6.sequencer.in_ports[2]

[system.cpu6.mmu.itb.walker.power_state]
type=PowerState
clk_gate_bins=20
clk_gate_max=1000000000000
clk_gate_min=1000
default_state=UNDEFINED
eventq_index=0
leaders=
possible_states=

[system.cpu6.power_state]
type=PowerState
clk_gate_bins=20
clk_gate_max=1000000000000
clk_gate_min=1000
default_state=UNDEFINED
eventq_index=0
leaders=
possible_states=ON CLK_GATED OFF

[system.cpu6.tracer]
type=ExeTracer
children=disassembler
disassembler=system.cpu6.tracer.disassembler
eventq_index=0

[system.cpu6.tracer.disassembler]
type=InstDisassembler
eventq_index=0

[system.cpu6.workload]
type=Process
cmd=./tests/coh_bench 6 8 10000 padded 0 0
cwd=/home/vboxuser/gem5
drivers=
egid=100
env=
errout=cerr
euid=100
eventq_index=0
executable=./tests/coh_bench
gid=1000
input=cin
kvmInSE=false
maxStackSize=67108864
output=cout
pgid=100
pid=106
ppid=0
release=5.1.0
simpoint=0
system=system
uid=100
useArchPT=false
zeroPages=true

[system.cpu7]
type=BaseTimingSimpleCPU
children=decoder interrupts isa mmu power_state tracer workload
branchPred=Null
checker=Null
clk_domain=system.cpu_clk_domain
cpu_id=7
decoder=system.cpu7.decoder
do_checkpoint_insts=true
do_statistics_insts=true
eventq_index=0
function_trace=false
function_trace_start=0
interrupts=system.cpu7.interrupts
isa=system.cpu7.isa
max_insts_all_threads=0
max_insts_any_thread=0
mmu=system.cpu7.mmu
numThreads=1
power_gating_on_idle=false
power_model=
power_state=system.cpu7.power_state
progress_interval=0
pwr_gating_latency=300
simpoint_start_insts=
socket_id=0
switched_out=false
syscallRetryLatency=10000
system=system
tracer=system.cpu7.tracer
workload=system.cpu7.workload
dcache_port=system.ruby.l1_cntrl7.sequencer.in_ports[1]
icache_port=system.ruby.l1_cntrl7.sequencer.in_ports[0]

[system.cpu7.decoder]
type=X86Decoder
eventq_index=0
isa=system.cpu7.isa

[system.cpu7.interrupts]
type=X86LocalApic
children=clk_domain
clk_domain=system.cpu7.interrupts.clk_domain
eventq_index=0
int_latency=1000
pio_latency=100000
system=system
int_requestor=system.ruby.l1_cntrl7.sequencer.in_ports[4]